/*---------------------------------------------------------------------------*\
  =========                 |
  \\      /  F ield         | OpenFOAM: The Open Source CFD Toolbox
   \\    /   O peration     | Website:  https://openfoam.org
    \\  /    A nd           | Version:  7
     \\/     M anipulation  |
\*---------------------------------------------------------------------------*/
Build  : 7-3bcbaf946ae9
Exec   : checkMesh
Date   : Mar 31 2021
Time   : 17:14:14
Host   : "cfdlab1"
PID    : 109193
I/O    : uncollated
Case   : /home/cfdlab/OpenFOAM/cfdlab-7/plasmaFOAM/tutorials/zones/case1/case
nProcs : 1
sigFpe : Enabling floating point exception trapping (FOAM_SIGFPE).
fileModificationChecking : Monitoring run-time modified files using timeStampMaster (fileModificationSkew 10)
allowSystemOperations : Allowing user-supplied system call operations

// * * * * * * * * * * * * * * * * * * * * * * * * * * * * * * * * * * * * * //
Create time

--> FOAM Warning : 
    From function static Foam::instantList Foam::timeSelector::select0(Foam::Time&, const Foam::argList&)
    in file db/Time/timeSelector.C at line 269
    No time specified or available, selecting 'constant'
Create polyMesh for time = constant

Time = constant

Mesh stats
    points:           6642
    internal points:  0
    faces:            12920
    internal faces:   6280
    cells:            3200
    faces per cell:   6
    boundary patches: 5
    point zones:      0
    face zones:       0
    cell zones:       0

Overall number of cells of each type:
    hexahedra:     3200
    prisms:        0
    wedges:        0
    pyramids:      0
    tet wedges:    0
    tetrahedra:    0
    polyhedra:     0

Checking topology...
    Boundary definition OK.
    Cell to face addressing OK.
    Point usage OK.
    Upper triangular ordering OK.
    Face vertices OK.
    Number of regions: 1 (OK).

Checking patch topology for multiply connected surfaces...
    Patch               Faces    Points   Surface topology                  
    topWall             80       162      ok (non-closed singly connected)  
    leftWall            40       82       ok (non-closed singly connected)  
    rightWall           40       82       ok (non-closed singly connected)  
    bottomWall          80       162      ok (non-closed singly connected)  
    frontAndBack        6400     6642     ok (non-closed singly connected)  

Checking geometry...
    Overall domain bounding box (0 0 0) (2 1 0.1)
    Mesh has 2 geometric (non-empty/wedge) directions (1 1 0)
    Mesh has 2 solution (non-empty) directions (1 1 0)
    All edges aligned with or perpendicular to non-empty directions.
    Boundary openness (8.2965e-18 -2.35696e-18 3.64905e-16) OK.
    Max cell openness = 1.73472e-16 OK.
    Max aspect ratio = 1 OK.
    Minimum face area = 0.000625. Maximum face area = 0.0025.  Face area magnitudes OK.
    Min volume = 6.25e-05. Max volume = 6.25e-05.  Total volume = 0.2.  Cell volumes OK.
    Mesh non-orthogonality Max: 0 average: 0
    Non-orthogonality check OK.
    Face pyramids OK.
    Max skewness = 5.32907e-14 OK.
    Coupled point location match (average 0) OK.

Mesh OK.

End

