/*---------------------------------------------------------------------------*\
  =========                 |
  \\      /  F ield         | OpenFOAM: The Open Source CFD Toolbox
   \\    /   O peration     | Website:  https://openfoam.org
    \\  /    A nd           | Version:  7
     \\/     M anipulation  |
\*---------------------------------------------------------------------------*/
Build  : 7-3bcbaf946ae9
Exec   : checkMesh
Date   : Apr 13 2021
Time   : 19:52:53
Host   : "george-PC"
PID    : 90709
I/O    : uncollated
Case   : /home/george/OpenFOAM/george-7/plasmaFOAM/actuator/fluid_case_test/streamer
nProcs : 1
sigFpe : Enabling floating point exception trapping (FOAM_SIGFPE).
fileModificationChecking : Monitoring run-time modified files using timeStampMaster (fileModificationSkew 10)
allowSystemOperations : Allowing user-supplied system call operations

// * * * * * * * * * * * * * * * * * * * * * * * * * * * * * * * * * * * * * //
Create time

Create polyMesh for time = 0

Time = 0

Mesh stats
    points:           1772162
    internal points:  0
    faces:            3525920
    internal faces:   1759090
    cells:            879946
    faces per cell:   6.00606
    boundary patches: 7
    point zones:      0
    face zones:       0
    cell zones:       2

Overall number of cells of each type:
    hexahedra:     874612
    prisms:        0
    wedges:        0
    pyramids:      0
    tet wedges:    0
    tetrahedra:    0
    polyhedra:     5334
    Breakdown of polyhedra by number of faces:
        faces   number of cells
            7   5334

Checking topology...
    Boundary definition OK.
    Cell to face addressing OK.
    Point usage OK.
    Upper triangular ordering OK.
    Face vertices OK.
    Number of regions: 1 (OK).

Checking patch topology for multiply connected surfaces...
                   Patch    Faces   Points                  Surface topology
           upperBoundary     1386     2774  ok (non-closed singly connected)
            leftBoundary      159      320  ok (non-closed singly connected)
           rightBoundary      159      320  ok (non-closed singly connected)
             highVoltage      968     1936  ok (non-closed singly connected)
                  ground     2880     5760  ok (non-closed singly connected)
          bottomBoundary     1386     2774  ok (non-closed singly connected)
            frontAndBack  1759892  1772162  ok (non-closed singly connected)

Checking geometry...
    Overall domain bounding box (-0.5 -0.050425 0) (0.5 0.5 0.05)
    Mesh has 2 geometric (non-empty/wedge) directions (1 1 0)
    Mesh has 2 solution (non-empty) directions (1 1 0)
    All edges aligned with or perpendicular to non-empty directions.
    Boundary openness (9.39639e-18 -4.82673e-18 2.09018e-13) OK.
 ***High aspect ratio cells found, Max aspect ratio: 13569.7, number of cells 4997
  <<Writing 4997 cells with high aspect ratio to set highAspectRatioCells
    Minimum face area = 7.62736e-11. Maximum face area = 0.00658691.  Face area magnitudes OK.
    Min volume = 3.81368e-12. Max volume = 0.000329346.  Total volume = 0.0275212.  Cell volumes OK.
    Mesh non-orthogonality Max: 89.6238 average: 1.77621
   *Number of severely non-orthogonal (> 70 degrees) faces: 58.
    Non-orthogonality check OK.
  <<Writing 58 non-orthogonal faces to set nonOrthoFaces
    Face pyramids OK.
    Max skewness = 0.34015 OK.
    Coupled point location match (average 0) OK.

Failed 1 mesh checks.

End

