/*---------------------------------------------------------------------------*\
  =========                 |
  \\      /  F ield         | OpenFOAM: The Open Source CFD Toolbox
   \\    /   O peration     | Website:  https://openfoam.org
    \\  /    A nd           | Version:  7
     \\/     M anipulation  |
\*---------------------------------------------------------------------------*/
Build  : 7-3bcbaf946ae9
Exec   : checkMesh
Date   : Dec 02 2021
Time   : 15:25:49
Host   : "cfdlab1"
PID    : 261364
I/O    : uncollated
Case   : /home/cfdlab/OpenFOAM/cfdlab-7/plasmaFOAM/tutorials/zones/case2/case
nProcs : 1
sigFpe : Enabling floating point exception trapping (FOAM_SIGFPE).
fileModificationChecking : Monitoring run-time modified files using timeStampMaster (fileModificationSkew 10)
allowSystemOperations : Allowing user-supplied system call operations

// * * * * * * * * * * * * * * * * * * * * * * * * * * * * * * * * * * * * * //
Create time

Create polyMesh for time = 0

Time = 0

Mesh stats
    points:           14762
    internal points:  0
    faces:            28980
    internal faces:   14220
    cells:            7200
    faces per cell:   6
    boundary patches: 5
    point zones:      0
    face zones:       0
    cell zones:       2

Overall number of cells of each type:
    hexahedra:     7200
    prisms:        0
    wedges:        0
    pyramids:      0
    tet wedges:    0
    tetrahedra:    0
    polyhedra:     0

Checking topology...
    Boundary definition OK.
    Cell to face addressing OK.
    Point usage OK.
    Upper triangular ordering OK.
    Face vertices OK.
    Number of regions: 1 (OK).

Checking patch topology for multiply connected surfaces...
    Patch               Faces    Points   Surface topology                  
    topWall             120      242      ok (non-closed singly connected)  
    leftWall            60       122      ok (non-closed singly connected)  
    rightWall           60       122      ok (non-closed singly connected)  
    bottomWall          120      242      ok (non-closed singly connected)  
    frontAndBack        14400    14762    ok (non-closed singly connected)  

Checking geometry...
    Overall domain bounding box (0 0 0) (2 1 0.1)
    Mesh has 2 geometric (non-empty/wedge) directions (1 1 0)
    Mesh has 2 solution (non-empty) directions (1 1 0)
    All edges aligned with or perpendicular to non-empty directions.
    Boundary openness (-3.16776e-17 -1.40381e-16 -4.12974e-15) OK.
    Max cell openness = 9.75782e-17 OK.
    Max aspect ratio = 1 OK.
    Minimum face area = 0.000277778. Maximum face area = 0.00166667.  Face area magnitudes OK.
    Min volume = 2.77778e-05. Max volume = 2.77778e-05.  Total volume = 0.2.  Cell volumes OK.
    Mesh non-orthogonality Max: 0 average: 0
    Non-orthogonality check OK.
    Face pyramids OK.
    Max skewness = 7.99361e-14 OK.
    Coupled point location match (average 0) OK.

Mesh OK.

End

